          13
 PATH POINT :           1
C  -0.723712 -0.121856 -0.000041
N  -0.239328  1.048851 -0.000157
C   0.318859 -1.207553  0.000518
C   1.591304 -0.362301 -0.000365
H   0.220366 -1.845434 -0.879445
H   0.220636 -1.844029  0.881547
O   1.142961  1.005663  0.000196
H   2.202941 -0.517958 -0.889109
H   2.204512 -0.518144  0.887239
C  -2.191728 -0.365920 -0.000162
H  -2.728929  0.579823 -0.000388
H  -2.482165 -0.943890  0.879705
H  -2.482009 -0.944222 -0.879865
          13
 PATH POINT :           2
C  -0.724807 -0.121266  0.000009
N  -0.233993  1.047366 -0.000077
C   0.316633 -1.216207  0.000100
C   1.593229 -0.374030  0.000031
H   0.216640 -1.853226 -0.880355
H   0.216637 -1.853074  0.880666
O   1.147867  0.999455 -0.000070
H   2.205577 -0.530428 -0.888130
H   2.205586 -0.530291  0.888210
C  -2.200192 -0.340975  0.000008
H  -2.717811  0.615535  0.000027
H  -2.502935 -0.912293  0.879922
H  -2.502936 -0.912255 -0.879931
          13
 PATH POINT :           3
C  -0.725805 -0.116354  0.000009
N  -0.236032  1.053611 -0.000077
C   0.325626 -1.229676  0.000101
C   1.607811 -0.404154  0.000033
H   0.218023 -1.864687 -0.880954
H   0.218021 -1.864535  0.881267
O   1.138519  1.023987 -0.000072
H   2.218614 -0.541204 -0.890856
H   2.218623 -0.541067  0.890937
C  -2.208144 -0.338763  0.000007
H  -2.730150  0.615509  0.000033
H  -2.509906 -0.910984  0.879767
H  -2.509910 -0.910935 -0.879783
          13
 PATH POINT :           4
C  -0.727902 -0.110388  0.000009
N  -0.236406  1.059068 -0.000077
C   0.334330 -1.241537  0.000102
C   1.621463 -0.435475  0.000036
H   0.218831 -1.873762 -0.881896
H   0.218829 -1.873609  0.882210
O   1.128385  1.048833 -0.000074
H   2.229859 -0.552361 -0.893928
H   2.229869 -0.552224  0.894010
C  -2.214758 -0.337423  0.000007
H  -2.742829  0.613600  0.000036
H  -2.513837 -0.911297  0.879668
H  -2.513843 -0.911244 -0.879687
          13
 PATH POINT :           5
C  -0.731353 -0.103347  0.000008
N  -0.235754  1.064053 -0.000078
C   0.344006 -1.253636  0.000103
C   1.634564 -0.466713  0.000038
H   0.219925 -1.882084 -0.883259
H   0.219924 -1.881932  0.883575
O   1.118012  1.073402 -0.000076
H   2.240079 -0.562769 -0.897041
H   2.240088 -0.562633  0.897125
C  -2.221299 -0.336198  0.000007
H  -2.756369  0.610976  0.000038
H  -2.516713 -0.912064  0.879625
H  -2.516721 -0.912007 -0.879647
          13
 PATH POINT :           6
C  -0.736394 -0.094941  0.000008
N  -0.234196  1.068645 -0.000078
C   0.355113 -1.266597  0.000104
C   1.647031 -0.497451  0.000041
H   0.221182 -1.889991 -0.885101
H   0.221182 -1.889839  0.885417
O   1.107669  1.097461 -0.000078
H   2.249306 -0.572003 -0.900056
H   2.249316 -0.571867  0.900142
C  -2.228032 -0.335002  0.000006
H  -2.770994  0.607731  0.000040
H  -2.518880 -0.913118  0.879645
H  -2.518890 -0.913059 -0.879669
          13
 PATH POINT :           7
C  -0.743250 -0.084923  0.000007
N  -0.231774  1.072730 -0.000078
C   0.367900 -1.280687  0.000106
C   1.658726 -0.527379  0.000043
H   0.222329 -1.897426 -0.887448
H   0.222330 -1.897274  0.887765
O   1.097550  1.120834 -0.000080
H   2.257394 -0.579691 -0.902905
H   2.257403 -0.579554  0.902992
C  -2.234974 -0.333849  0.000006
H  -2.786609  0.603895  0.000041
H  -2.520431 -0.914391  0.879737
H  -2.520444 -0.914330 -0.879761
          13
 PATH POINT :           8
C  -0.752033 -0.073160  0.000006
N  -0.228544  1.076116 -0.000079
C   0.382432 -1.295953  0.000107
C   1.669537 -0.556220  0.000045
H   0.223045 -1.904167 -0.890275
H   0.223047 -1.904016  0.890593
O   1.087813  1.143382 -0.000081
H   2.264193 -0.585606 -0.905566
H   2.264201 -0.585469  0.905654
C  -2.242051 -0.332775  0.000006
H  -2.802955  0.599517  0.000043
H  -2.521414 -0.915827  0.879902
H  -2.521429 -0.915764 -0.879928
          13
 PATH POINT :           9
C  -0.762666 -0.059684  0.000005
N  -0.224594  1.078599 -0.000079
C   0.398569 -1.312236  0.000109
C   1.679417 -0.583823  0.000047
H   0.223048 -1.909935 -0.893494
H   0.223050 -1.909784  0.893813
O   1.078574  1.165047 -0.000083
H   2.269604 -0.589647 -0.908039
H   2.269612 -0.589509  0.908129
C  -2.249153 -0.331824  0.000006
H  -2.819716  0.594660  0.000045
H  -2.521878 -0.917383  0.880139
H  -2.521895 -0.917317 -0.880167
          13
 PATH POINT :          10
C  -0.774942 -0.044653  0.000004
N  -0.220024  1.079994 -0.000079
C   0.416037 -1.329261  0.000110
C   1.688398 -0.610163  0.000049
H   0.222130 -1.914466 -0.896977
H   0.222133 -1.914314  0.897297
O   1.069884  1.185875 -0.000085
H   2.273614 -0.591840 -0.910315
H   2.273622 -0.591700  0.910405
C  -2.256177 -0.331032  0.000005
H  -2.836601  0.589391  0.000046
H  -2.521877 -0.919024  0.880441
H  -2.521897 -0.918957 -0.880470
          13
 PATH POINT :          11
C  -0.788642 -0.028247  0.000003
N  -0.214929  1.080184 -0.000079
C   0.434549 -1.346791  0.000112
C   1.696555 -0.635254  0.000051
H   0.220154 -1.917516 -0.900586
H   0.220158 -1.917364  0.900906
O   1.061757  1.205937 -0.000086
H   2.276291 -0.592380 -0.912351
H   2.276298 -0.592237  0.912441
C  -2.263035 -0.330420  0.000005
H  -2.853385  0.583771  0.000048
H  -2.521471 -0.920725  0.880796
H  -2.521495 -0.920656 -0.880826
          13
 PATH POINT :          12
C  -0.803545 -0.010657  0.000002
N  -0.209391  1.079113 -0.000079
C   0.453814 -1.364635  0.000113
C   1.704007 -0.659149  0.000053
H   0.217025 -1.918866 -0.904208
H   0.217027 -1.918713  0.904528
O   1.054185  1.225336 -0.000088
H   2.277772 -0.591606 -0.914086
H   2.277780 -0.591462  0.914175
C  -2.269678 -0.329989  0.000005
H  -2.869944  0.577842  0.000050
H  -2.520720 -0.922469  0.881193
H  -2.520746 -0.922398 -0.881224
          13
 PATH POINT :          13
C  -0.819432  0.007954  0.000000
N  -0.203494  1.076755 -0.000079
C   0.473544 -1.382633  0.000115
C   1.710904 -0.681939  0.000054
H   0.212680 -1.918347 -0.907759
H   0.212681 -1.918193  0.908080
O   1.047151  1.244185 -0.000089
H   2.278250 -0.589907 -0.915485
H   2.278259 -0.589761  0.915574
C  -2.276081 -0.329735  0.000005
H  -2.886230  0.571629  0.000052
H  -2.519669 -0.924253  0.881618
H  -2.519698 -0.924179 -0.881651
          13
 PATH POINT :          14
C  -0.836088  0.027470 -0.000001
N  -0.197309  1.073066 -0.000078
C   0.493436 -1.400623  0.000117
C   1.717410 -0.703742  0.000056
H   0.207305 -1.916020 -0.911104
H   0.207306 -1.915866  0.911424
O   1.040601  1.262630 -0.000090
H   2.277972 -0.587679 -0.916577
H   2.277982 -0.587532  0.916664
C  -2.282237 -0.329652  0.000005
H  -2.902236  0.565141  0.000054
H  -2.518354 -0.926084  0.882059
H  -2.518386 -0.926008 -0.882093
          13
 PATH POINT :          15
C  -0.853261  0.047756 -0.000002
N  -0.190908  1.068059 -0.000078
C   0.513153 -1.418458  0.000118
C   1.723742 -0.724751  0.000058
H   0.201479 -1.912291 -0.914027
H   0.201481 -1.912138  0.914347
O   1.034423  1.280892 -0.000092
H   2.277222 -0.585293 -0.917420
H   2.277233 -0.585146  0.917506
C  -2.288177 -0.329731  0.000004
H  -2.918042  0.558353  0.000057
H  -2.516810 -0.927992  0.882498
H  -2.516845 -0.927913 -0.882535
          13
 PATH POINT :          16
C  -0.870726  0.068596 -0.000004
N  -0.184387  1.061939 -0.000078
C   0.532392 -1.436102  0.000120
C   1.730212 -0.745178  0.000059
H   0.195898 -1.907820 -0.916423
H   0.195901 -1.907668  0.916742
O   1.028504  1.299221 -0.000093
H   2.276309 -0.583063 -0.918055
H   2.276322 -0.582918  0.918140
C  -2.294008 -0.329961  0.000004
H  -2.933943  0.551118  0.000060
H  -2.515058 -0.930052  0.882923
H  -2.515096 -0.929968 -0.882962
          13
 PATH POINT :          17
C  -0.873040  0.179200 -0.000010
N  -0.138410  1.115660 -0.000080
C   0.601150 -1.403330  0.000120
C   1.777860 -0.716980  0.000060
H   0.221930 -1.832840 -0.919700
H   0.221940 -1.832690  0.920010
O   1.050250  1.404680 -0.000100
H   2.308500 -0.513540 -0.918690
H   2.308510 -0.513400  0.918760
C  -2.273150 -0.262680  0.000000
H  -2.935340  0.602040  0.000070
H  -2.477750 -0.866960  0.883610
H  -2.477800 -0.866870 -0.883670
          13
 PATH POINT :          18
C  -0.923540  0.132902 -0.000008
N  -0.164813  1.040257 -0.000076
C   0.585322 -1.488763  0.000125
C   1.752661 -0.804678  0.000065
H   0.186461 -1.898032 -0.921024
H   0.186472 -1.897883  0.921341
O   1.011838  1.355795 -0.000098
H   2.275545 -0.581677 -0.918901
H   2.275554 -0.581536  0.918978
C  -2.312241 -0.330725  0.000003
H  -2.985993  0.525302  0.000076
H  -2.508343 -0.937182  0.883934
H  -2.508397 -0.937089 -0.883989
          13
 PATH POINT :          19
C  -0.941042  0.155160 -0.000011
N  -0.158089  1.031779 -0.000076
C   0.600982 -1.506163  0.000126
C   1.760997 -0.823942  0.000065
H   0.185831 -1.897121 -0.921768
H   0.185840 -1.896974  0.922085
O   1.006559  1.375088 -0.000099
H   2.276325 -0.583840 -0.918936
H   2.276339 -0.583695  0.919021
C  -2.318468 -0.330729  0.000004
H  -3.004677  0.515530  0.000069
H  -2.505564 -0.939451  0.884224
H  -2.505618 -0.939359 -0.884269
          13
 PATH POINT :          20
C  -0.958827  0.178092 -0.000013
N  -0.151610  1.023546 -0.000075
C   0.616475 -1.523988  0.000127
C   1.769706 -0.842343  0.000067
H   0.186477 -1.897268 -0.922302
H   0.186486 -1.897123  0.922619
O   1.001387  1.393911 -0.000100
H   2.277971 -0.587163 -0.918934
H   2.277985 -0.587021  0.919020
C  -2.324828 -0.330953  0.000004
H  -3.024394  0.504472  0.000070
H  -2.502307 -0.942132  0.884452
H  -2.502364 -0.942041 -0.884495
          13
 PATH POINT :          21
C  -0.976752  0.201762 -0.000014
N  -0.145500  1.015619 -0.000075
C   0.631759 -1.542311  0.000128
C   1.778759 -0.860015  0.000068
H   0.188338 -1.898770 -0.922604
H   0.188347 -1.898623  0.922921
O   0.996319  1.412169 -0.000101
H   2.280554 -0.591824 -0.918945
H   2.280567 -0.591681  0.919032
C  -2.331265 -0.331202  0.000004
H  -3.044903  0.492418  0.000071
H  -2.498574 -0.944905  0.884655
H  -2.498635 -0.944815 -0.884697
          13
 PATH POINT :          22
C  -0.994717  0.226164 -0.000017
N  -0.139853  1.008155 -0.000074
C   0.646787 -1.561027  0.000129
C   1.788201 -0.877111  0.000069
H   0.191655 -1.902064 -0.922729
H   0.191663 -1.901917  0.923047
O   0.991275  1.429827 -0.000103
H   2.284217 -0.597914 -0.918978
H   2.284228 -0.597770  0.919067
C  -2.337751 -0.331460  0.000005
H  -3.066215  0.479257  0.000073
H  -2.494218 -0.947752  0.884833
H  -2.494283 -0.947663 -0.884876
          13
 PATH POINT :          23
C  -1.012556  0.251115 -0.000019
N  -0.134843  1.001533 -0.000074
C   0.661464 -1.580045  0.000131
C   1.798157 -0.893985  0.000071
H   0.196811 -1.907910 -0.922751
H   0.196819 -1.907762  0.923069
O   0.986117  1.446956 -0.000104
H   2.289174 -0.605717 -0.919034
H   2.289183 -0.605571  0.919124
C  -2.344226 -0.331652  0.000005
H  -3.088250  0.464953  0.000075
H  -2.489077 -0.950593  0.884980
H  -2.489147 -0.950503 -0.885022
          13
 PATH POINT :          24
C  -1.030209  0.276471 -0.000021
N  -0.130744  0.996265 -0.000073
C   0.675877 -1.599410  0.000132
C   1.808667 -0.910832  0.000072
H   0.204153 -1.917019 -0.922744
H   0.204161 -1.916871  0.923063
O   0.980762  1.463418 -0.000105
H   2.295576 -0.615404 -0.919108
H   2.295584 -0.615257  0.919201
C  -2.350575 -0.331685  0.000005
H  -3.110799  0.449550  0.000078
H  -2.483014 -0.953299  0.885084
H  -2.483089 -0.953208 -0.885127
          13
 PATH POINT :          25
C  -1.047507  0.302031 -0.000023
N  -0.127937  0.992806 -0.000073
C   0.690174 -1.619195  0.000133
C   1.819720 -0.927892  0.000073
H   0.213649 -1.929538 -0.922756
H   0.213656 -1.929389  0.923076
O   0.975107  1.479100 -0.000106
H   2.303353 -0.626898 -0.919194
H   2.303359 -0.626751  0.919289
C  -2.356557 -0.331470  0.000005
H  -3.133293  0.433329  0.000081
H  -2.475986 -0.955686  0.885143
H  -2.476068 -0.955594 -0.885186
          13
 PATH POINT :          26
C  -1.064183  0.327367 -0.000026
N  -0.126749  0.991533 -0.000073
C   0.704428 -1.639405  0.000135
C   1.831361 -0.945535  0.000075
H   0.224939 -1.945089 -0.922790
H   0.224946 -1.944941  0.923112
O   0.968984  1.494095 -0.000107
H   2.312306 -0.640046 -0.919283
H   2.312313 -0.639901  0.919381
C  -2.361907 -0.330935  0.000005
H  -3.154926  0.416845  0.000084
H  -2.468102 -0.957557  0.885163
H  -2.468191 -0.957464 -0.885208
          13
 PATH POINT :          27
C  -1.080081  0.352091 -0.000028
N  -0.127380  0.992709 -0.000073
C   0.718759 -1.660162  0.000136
C   1.843490 -0.963778  0.000077
H   0.237696 -1.963245 -0.922845
H   0.237703 -1.963098  0.923169
O   0.962371  1.508407 -0.000108
H   2.322199 -0.654586 -0.919370
H   2.322206 -0.654443  0.919471
C  -2.366465 -0.330055  0.000005
H  -3.175011  0.400710  0.000088
H  -2.459595 -0.958778  0.885169
H  -2.459690 -0.958684 -0.885215
          13
 PATH POINT :          28
C  -1.095071  0.375800 -0.000031
N  -0.129770  0.996353 -0.000073
C   0.733150 -1.681461  0.000137
C   1.855963 -0.982586  0.000078
H   0.251627 -1.983641 -0.922917
H   0.251635 -1.983495  0.923243
O   0.955303  1.522164 -0.000109
H   2.332864 -0.670460 -0.919464
H   2.332871 -0.670317  0.919569
C  -2.370210 -0.328791  0.000005
H  -3.193195  0.385441  0.000090
H  -2.450801 -0.959258  0.885173
H  -2.450902 -0.959164 -0.885219
          13
 PATH POINT :          29
C  -1.109154  0.398241 -0.000033
N  -0.133733  1.002297 -0.000074
C   0.747756 -1.703438  0.000139
C   1.868524 -1.001585  0.000080
H   0.266687 -2.006138 -0.922997
H   0.266693 -2.005993  0.923326
O   0.947902  1.535382 -0.000110
H   2.344018 -0.687297 -0.919578
H   2.344023 -0.687153  0.919687
C  -2.373297 -0.327082  0.000006
H  -3.209456  0.371442  0.000091
H  -2.442139 -0.958942  0.885179
H  -2.442245 -0.958851 -0.885225
          13
 PATH POINT :          30
C  -1.122309  0.419246 -0.000034
N  -0.138955  1.010160 -0.000075
C   0.762659 -1.726207  0.000140
C   1.880973 -1.020581  0.000082
H   0.282644 -2.030367 -0.923076
H   0.282650 -2.030221  0.923407
O   0.940281  1.548270 -0.000110
H   2.355183 -0.704421 -0.919705
H   2.355185 -0.704276  0.919818
C  -2.375942 -0.324885  0.000005
H  -3.223840  0.359127  0.000090
H  -2.434083 -0.957808  0.885190
H  -2.434190 -0.957722 -0.885234
          13
 PATH POINT :          31
C  -1.134526  0.438811 -0.000036
N  -0.145072  1.019485 -0.000075
C   0.778085 -1.750220  0.000142
C   1.892882 -1.039063  0.000084
H   0.299419 -2.056309 -0.923138
H   0.299422 -2.056162  0.923471
O   0.932605  1.560918 -0.000111
H   2.365771 -0.721086 -0.919841
H   2.365770 -0.720937  0.919957
C  -2.378405 -0.322033  0.000005
H  -3.236514  0.348950  0.000086
H  -2.427038 -0.955731  0.885207
H  -2.427145 -0.955654 -0.885246
          13
 PATH POINT :          32
C  -1.145582  0.456585 -0.000038
N  -0.151481  1.029383 -0.000076
C   0.793795 -1.775184  0.000143
C   1.904340 -1.057364  0.000086
H   0.316824 -2.083760 -0.923179
H   0.316823 -2.083609  0.923515
O   0.924554  1.574243 -0.000112
H   2.375601 -0.737156 -0.919974
H   2.375597 -0.737003  0.920095
C  -2.380898 -0.318425  0.000005
H  -3.247502  0.341405  0.000078
H  -2.421448 -0.952656  0.885225
H  -2.421550 -0.952591 -0.885258
          13
 PATH POINT :          33
C  -1.155040  0.471953 -0.000039
N  -0.157875  1.039543 -0.000077
C   0.809522 -1.800893  0.000145
C   1.915325 -1.075731  0.000088
H   0.334805 -2.112766 -0.923219
H   0.334798 -2.112610  0.923557
O   0.915918  1.588946 -0.000113
H   2.384582 -0.752723 -0.920096
H   2.384572 -0.752567  0.920222
C  -2.383545 -0.314014  0.000004
H  -3.256578  0.337169  0.000068
H  -2.417884 -0.948571  0.885242
H  -2.417978 -0.948521 -0.885266
          13
 PATH POINT :          34
C  -1.162480  0.484247 -0.000040
N  -0.164079  1.049816 -0.000078
C   0.825020 -1.827032  0.000145
C   1.925821 -1.094225  0.000091
H   0.353225 -2.143128 -0.923262
H   0.353212 -2.142971  0.923599
O   0.906574  1.605479 -0.000114
H   2.392742 -0.767929 -0.920203
H   2.392729 -0.767775  0.920336
C  -2.386457 -0.308850  0.000003
H  -3.263559  0.336763  0.000056
H  -2.416837 -0.943565  0.885254
H  -2.416920 -0.943533 -0.885268
          13
 PATH POINT :          35
C  -1.167875  0.493549 -0.000041
N  -0.169966  1.060134 -0.000078
C   0.840316 -1.853742  0.000145
C   1.935432 -1.112386  0.000094
H   0.371807 -2.174513 -0.923302
H   0.371791 -2.174363  0.923636
O   0.896711  1.623620 -0.000115
H   2.399579 -0.782163 -0.920284
H   2.399562 -0.782016  0.920427
C  -2.389578 -0.303074  0.000003
H  -3.268514  0.340020  0.000042
H  -2.418212 -0.937828  0.885263
H  -2.418283 -0.937814 -0.885266
          13
 PATH POINT :          36
C  -1.171694  0.500619 -0.000041
N  -0.175609  1.070516 -0.000079
C   0.855806 -1.881341  0.000144
C   1.943734 -1.129353  0.000098
H   0.391015 -2.207351 -0.923328
H   0.390994 -2.207207  0.923657
O   0.886598  1.642636 -0.000116
H   2.404534 -0.794465 -0.920346
H   2.404513 -0.794323  0.920501
C  -2.392754 -0.296969  0.000002
H  -3.271964  0.345777  0.000030
H  -2.421191 -0.931697  0.885266
H  -2.421250 -0.931700 -0.885258
          13
 PATH POINT :          37
C  -1.175415  0.507662 -0.000043
N  -0.181394  1.081203 -0.000080
C   0.873070 -1.911347  0.000144
C   1.949397 -1.142538  0.000102
H   0.413506 -2.244645 -0.923336
H   0.413481 -2.244509  0.923661
O   0.877416  1.659878 -0.000116
H   2.405126 -0.800682 -0.920369
H   2.405099 -0.800547  0.920536
C  -2.396024 -0.290575  0.000001
H  -3.275296  0.352118  0.000019
H  -2.424427 -0.925261  0.885271
H  -2.424478 -0.925279 -0.885255
          13
 PATH POINT :          38
C  -1.179730  0.515697 -0.000045
N  -0.187195  1.091847 -0.000081
C   0.891709 -1.942649  0.000144
C   1.952866 -1.152760  0.000107
H   0.438731 -2.284864 -0.923314
H   0.438696 -2.284729  0.923636
O   0.869345  1.674989 -0.000117
H   2.401888 -0.801947 -0.920351
H   2.401852 -0.801813  0.920532
C  -2.399232 -0.284211 -0.000001
H  -3.279186  0.357569  0.000011
H  -2.426950 -0.918875  0.885283
H  -2.426994 -0.918904 -0.885263
          13
 PATH POINT :          39
C  -1.184085  0.524077 -0.000046
N  -0.192351  1.101622 -0.000082
C   0.911259 -1.974834  0.000144
C   1.953583 -1.159958  0.000111
H   0.466688 -2.327983 -0.923275
H   0.466642 -2.327850  0.923593
O   0.862348  1.688433 -0.000117
H   2.394360 -0.798569 -0.920298
H   2.394314 -0.798438  0.920491
C  -2.402481 -0.277474 -0.000003
H  -3.283163  0.363320  0.000003
H  -2.429429 -0.912121  0.885295
H  -2.429468 -0.912157 -0.885273
          13
 PATH POINT :          40
C  -1.187372  0.530942 -0.000047
N  -0.196693  1.110284 -0.000082
C   0.931659 -2.007363  0.000145
C   1.950771 -1.163276  0.000114
H   0.497661 -2.373522 -0.923242
H   0.497630 -2.373420  0.923557
O   0.856174  1.700743 -0.000117
H   2.381508 -0.789610 -0.920215
H   2.381477 -0.789510  0.920418
C  -2.405719 -0.270613 -0.000004
H  -3.286247  0.370405 -0.000002
H  -2.432730 -0.905220  0.885289
H  -2.432765 -0.905260 -0.885268
          13
 PATH POINT :          41
C  -1.189262  0.535508 -0.000049
N  -0.200613  1.118278 -0.000082
C   0.952798 -2.039351  0.000145
C   1.945024 -1.163555  0.000115
H   0.530608 -2.419165 -0.923194
H   0.530614 -2.419113  0.923509
O   0.849955  1.713191 -0.000115
H   2.364340 -0.776716 -0.920115
H   2.364346 -0.776665  0.920321
C  -2.408310 -0.264876 -0.000006
H  -3.288000  0.377319 -0.000003
H  -2.436038 -0.899434  0.885267
H  -2.436074 -0.899474 -0.885251
          13
 PATH POINT :          42
C  -1.190931  0.539325 -0.000050
N  -0.204803  1.126333 -0.000082
C   0.974663 -2.070290  0.000145
C   1.938124 -1.162749  0.000115
H   0.564851 -2.463472 -0.923151
H   0.564863 -2.463427  0.923466
O   0.842896  1.726634 -0.000113
H   2.345363 -0.762868 -0.920019
H   2.345376 -0.762824  0.920224
C  -2.409571 -0.261591 -0.000008
H  -3.289296  0.380580 -0.000002
H  -2.437186 -0.896124  0.885254
H  -2.437225 -0.896157 -0.885246
