          16
 PATH POINT :           1
C   0.828906  1.517361  0.584153
C   1.521443  0.733401 -0.237020
H   0.890045  2.594929  0.508909
H   0.180792  1.115424  1.353368
C   1.520263 -0.735876 -0.236728
H   2.151367  1.200599 -0.987174
C   0.825940 -1.518385  0.584317
H   0.885443 -2.596078  0.509590
H   0.177932 -1.115092  1.352899
H   2.149868 -1.204382 -0.986327
C  -2.243835 -0.659861 -0.359397
C  -2.240510  0.663186 -0.361631
H  -2.751398 -1.225315  0.413278
H  -1.735838 -1.228201 -1.128134
H  -2.745247  1.233807  0.409089
H  -1.729661  1.226367 -1.132273
          16
 PATH POINT :           2
C   0.827661  1.517428  0.590308
C   1.503482  0.733294 -0.244537
H   0.887136  2.594977  0.513477
H   0.195237  1.115871  1.372709
C   1.502398 -0.735739 -0.244202
H   2.117490  1.200673 -1.007652
C   0.824772 -1.518475  0.590493
H   0.882767 -2.596145  0.514267
H   0.192273 -1.115594  1.372146
H   2.116254 -1.204372 -1.006668
C  -2.225568 -0.659854 -0.358848
C  -2.222871  0.663173 -0.360423
H  -2.721992 -1.226044  0.420555
H  -1.728067 -1.227697 -1.134775
H  -2.716980  1.233259  0.417606
H  -1.723054  1.227125 -1.137698
          16
 PATH POINT :           3
C   0.825932  1.517475  0.596346
C   1.485602  0.733206 -0.251170
H   0.883709  2.595010  0.518042
H   0.208908  1.116239  1.391126
C   1.484570 -0.735594 -0.250849
H   2.084177  1.200794 -1.026298
C   0.823164 -1.518543  0.596537
H   0.879532 -2.596192  0.518816
H   0.206059 -1.116049  1.390612
H   2.083006 -1.204363 -1.025370
C  -2.207025 -0.659851 -0.358897
C  -2.204737  0.663138 -0.359995
H  -2.690440 -1.226649  0.428305
H  -1.721878 -1.227410 -1.142854
H  -2.686175  1.232936  0.426250
H  -1.717628  1.227697 -1.144898
          16
 PATH POINT :           4
C   0.823038  1.517448  0.601623
C   1.468139  0.733119 -0.256948
H   0.879125  2.594979  0.522040
H   0.220215  1.116418  1.407334
C   1.467157 -0.735446 -0.256653
H   2.052675  1.200956 -1.042542
C   0.820418 -1.518543  0.601815
H   0.875158 -2.596180  0.522770
H   0.217539 -1.116334  1.406891
H   2.051540 -1.204383 -1.041704
C  -2.187829 -0.659835 -0.358956
C  -2.185804  0.663093 -0.359666
H  -2.654839 -1.227215  0.438019
H  -1.718209 -1.227271 -1.152706
H  -2.651062  1.232782  0.436685
H  -1.714449  1.228213 -1.154034
          16
 PATH POINT :           5
C   0.819259  1.517377  0.605982
C   1.451786  0.733020 -0.261833
H   0.873619  2.594909  0.525245
H   0.229276  1.116465  1.421168
C   1.450833 -0.735289 -0.261567
H   2.023903  1.201105 -1.056323
C   0.816782 -1.518486  0.606186
H   0.869818 -2.596116  0.525931
H   0.226815 -1.116461  1.420832
H   2.022743 -1.204408 -1.055597
C  -2.168792 -0.659805 -0.358896
C  -2.166981  0.663022 -0.359304
H  -2.609735 -1.227748  0.452731
H  -1.724618 -1.227387 -1.167381
H  -2.606348  1.232687  0.451963
H  -1.721212  1.228872 -1.168130
          16
 PATH POINT :           6
C   0.814228  1.517289  0.609619
C   1.436961  0.732915 -0.265231
H   0.866910  2.594824  0.527862
H   0.234973  1.116441  1.432461
C   1.436017 -0.735129 -0.264995
H   1.998990  1.201213 -1.066732
C   0.811847 -1.518392  0.609828
H   0.863195 -2.596022  0.528498
H   0.232698 -1.116478  1.432224
H   1.997768 -1.204414 -1.066113
C  -2.149884 -0.659782 -0.359432
C  -2.148305  0.662942 -0.359668
H  -2.556657 -1.228126  0.469192
H  -1.739419 -1.227688 -1.184976
H  -2.553684  1.232563  0.468755
H  -1.736433  1.229563 -1.185400
          16
 PATH POINT :           7
C   0.807335  1.517096  0.612663
C   1.422111  0.732788 -0.267874
H   0.858191  2.594647  0.529938
H   0.237511  1.116221  1.442004
C   1.421161 -0.734957 -0.267671
H   1.975398  1.201315 -1.075264
C   0.805012 -1.518191  0.612867
H   0.854493 -2.595830  0.530510
H   0.235392 -1.116282  1.441848
H   1.974091 -1.204435 -1.074752
C  -2.129062 -0.659769 -0.360019
C  -2.127689  0.662877 -0.360168
H  -2.508614 -1.228488  0.480845
H  -1.745457 -1.227933 -1.197917
H  -2.506031  1.232582  0.480570
H  -1.742861  1.230048 -1.198181
          16
 PATH POINT :           8
C   0.798633  1.516858  0.614666
C   1.407482  0.732632 -0.270100
H   0.847570  2.594427  0.530949
H   0.236751  1.115941  1.449320
C   1.406491 -0.734763 -0.269936
H   1.953599  1.201372 -1.082198
C   0.796322 -1.517935  0.614857
H   0.843803 -2.595588  0.531437
H   0.234770 -1.116006  1.449246
H   1.952143 -1.204432 -1.081808
C  -2.106600 -0.659768 -0.359912
C  -2.105377  0.662823 -0.360018
H  -2.468845 -1.228789  0.488239
H  -1.740302 -1.228132 -1.205278
H  -2.466557  1.232656  0.488041
H  -1.738002  1.230369 -1.205468
          16
 PATH POINT :           9
C   0.788425  1.516639  0.615421
C   1.393668  0.732457 -0.271928
H   0.835455  2.594223  0.530672
H   0.232598  1.115727  1.454041
C   1.392639 -0.734555 -0.271797
H   1.934577  1.201371 -1.087378
C   0.786114 -1.517696  0.615596
H   0.831620 -2.595361  0.531089
H   0.230716 -1.115790  1.454025
H   1.932998 -1.204383 -1.087084
C  -2.083387 -0.659772 -0.358908
C  -2.082255  0.662777 -0.358988
H  -2.433845 -1.229028  0.493986
H  -1.729377 -1.228316 -1.209314
H  -2.431737  1.232738  0.493835
H  -1.727261  1.230608 -1.209460
          16
 PATH POINT :          10
C   0.776970  1.516432  0.614921
C   1.380885  0.732270 -0.273449
H   0.822060  2.594029  0.529105
H   0.225161  1.115542  1.456123
C   1.379832 -0.734340 -0.273342
H   1.918532  1.201339 -1.090947
C   0.774663 -1.517473  0.615084
H   0.818185 -2.595146  0.529470
H   0.223355 -1.115602  1.456146
H   1.916872 -1.204309 -1.090721
C  -2.059892 -0.659774 -0.356926
C  -2.058808  0.662737 -0.356987
H  -2.401256 -1.229227  0.499492
H  -1.715726 -1.228480 -1.211201
H  -2.399242  1.232828  0.499376
H  -1.713709  1.230797 -1.211315
          16
 PATH POINT :          11
C   0.764509  1.516163  0.613288
C   1.369164  0.732072 -0.274768
H   0.807523  2.593776  0.526398
H   0.215030  1.115227  1.455907
C   1.368098 -0.734120 -0.274674
H   1.905192  1.201322 -1.093213
C   0.762202 -1.517189  0.613438
H   0.803632 -2.594874  0.526728
H   0.213259 -1.115283  1.455942
H   1.903498 -1.204260 -1.093018
C  -2.036383 -0.659776 -0.353996
C  -2.035321  0.662702 -0.354045
H  -2.370298 -1.229426  0.505194
H  -1.700393 -1.228613 -1.211365
H  -2.368325  1.232950  0.505103
H  -1.698423  1.230935 -1.211456
          16
 PATH POINT :          12
C   0.751314  1.515761  0.610810
C   1.358335  0.731866 -0.275955
H   0.792042  2.593397  0.522886
H   0.202835  1.114633  1.453892
C   1.357268 -0.733893 -0.275867
H   1.893967  1.201363 -1.094507
C   0.749005 -1.516772  0.610945
H   0.788154 -2.594476  0.523192
H   0.201051 -1.114686  1.453910
H   1.892278 -1.204273 -1.094316
C  -2.012960 -0.659778 -0.350339
C  -2.011904  0.662670 -0.350378
H  -2.341425 -1.229639  0.510781
H  -1.683151 -1.228706 -1.209962
H  -2.339459  1.233106  0.510709
H  -1.681198  1.231020 -1.210037
          16
 PATH POINT :          13
C   0.737594  1.515097  0.607737
C   1.348271  0.731645 -0.277085
H   0.775386  2.592767  0.518730
H   0.189338  1.113485  1.450629
C   1.347208 -0.733654 -0.277001
H   1.884105  1.201522 -1.095272
C   0.735284 -1.516092  0.607858
H   0.771504 -2.593825  0.519017
H   0.187545 -1.113529  1.450630
H   1.882430 -1.204407 -1.095083
C  -1.989656 -0.659774 -0.346118
C  -1.988600  0.662633 -0.346151
H  -2.314921 -1.229871  0.516035
H  -1.663947 -1.228747 -1.207169
H  -2.312951  1.233292  0.515974
H  -1.661998  1.231042 -1.207236
          16
 PATH POINT :          14
C   0.723310  1.513971  0.604151
C   1.339059  0.731382 -0.278140
H   0.757013  2.591680  0.513792
H   0.176031  1.111618  1.447159
C   1.338002 -0.733376 -0.278057
H   1.874985  1.201868 -1.095893
C   0.720999 -1.514947  0.604259
H   0.753135 -2.592714  0.514063
H   0.174236 -1.111651  1.447148
H   1.873323 -1.204733 -1.095703
C  -1.966502 -0.659782 -0.341448
C  -1.965443  0.662608 -0.341477
H  -2.290924 -1.230084  0.520857
H  -1.643132 -1.228783 -1.203237
H  -2.288954  1.233466  0.520802
H  -1.641171  1.231054 -1.203294
          16
 PATH POINT :          15
C   0.708463  1.512287  0.600111
C   1.330720  0.731062 -0.279078
H   0.737000  2.590032  0.508223
H   0.163260  1.108988  1.443771
C   1.329669 -0.733042 -0.278997
H   1.866644  1.202427 -1.096296
C   0.706151 -1.513242  0.600210
H   0.733123 -2.591039  0.508484
H   0.161466 -1.109007  1.443751
H   1.864993 -1.205274 -1.096105
C  -1.943559 -0.659813 -0.336460
C  -1.942500  0.662604 -0.336489
H  -2.268419 -1.230254  0.525547
H  -1.621662 -1.228888 -1.198618
H  -2.266452  1.233602  0.525491
H  -1.619689  1.231128 -1.198669
          16
 PATH POINT :          16
C   0.693159  1.509994  0.595717
C   1.323218  0.730680 -0.279898
H   0.715600  2.587773  0.502342
H   0.150115  1.105367  1.439855
C   1.322171 -0.732648 -0.279819
H   1.859329  1.203208 -1.096280
C   0.690845 -1.510925  0.595806
H   0.711715 -2.588747  0.502595
H   0.148314 -1.105362  1.439819
H   1.857684 -1.206041 -1.096090
C  -1.920857 -0.659868 -0.331228
C  -1.919805  0.662622 -0.331262
H  -2.246085 -1.230437  0.530502
H  -1.600842 -1.229023 -1.193891
H  -2.244131  1.233751  0.530438
H  -1.598882  1.231229 -1.193950
          16
 PATH POINT :          17
C   0.677507  1.507056  0.591062
C   1.316491  0.730232 -0.280630
H   0.692775  2.584848  0.496181
H   0.136691  1.100648  1.435478
C   1.315444 -0.732191 -0.280555
H   1.852664  1.204209 -1.096078
C   0.675188 -1.507960  0.591143
H   0.688869 -2.585786  0.496424
H   0.134883 -1.100612  1.435428
H   1.851009 -1.207030 -1.095898
C  -1.898396 -0.659953 -0.325789
C  -1.897354  0.662670 -0.325828
H  -2.223747 -1.230658  0.535733
H  -1.581112 -1.229151 -1.189279
H  -2.221815  1.233936  0.535659
H  -1.579183  1.231324 -1.189350
          16
 PATH POINT :          18
C   0.661550  1.503489  0.586199
C   1.310451  0.729717 -0.281285
H   0.668411  2.581240  0.489627
H   0.124018  1.094988  1.431361
C   1.309395 -0.731665 -0.281217
H   1.846213  1.205395 -1.095950
C   0.659227 -1.504366  0.586274
H   0.664484 -2.582140  0.489857
H   0.122214 -1.094924  1.431304
H   1.844531 -1.208206 -1.095788
C  -1.876157 -0.660065 -0.320200
C  -1.875126  0.662745 -0.320244
H  -2.201806 -1.230891  0.541042
H  -1.562265 -1.229270 -1.184754
H  -2.199894  1.234133  0.540959
H  -1.560365  1.231410 -1.184838
          16
 PATH POINT :          19
C   0.645358  1.499334  0.581141
C   1.305042  0.729135 -0.281874
H   0.642614  2.576960  0.482672
H   0.111928  1.088424  1.427366
C   1.303973 -0.731073 -0.281815
H   1.840004  1.206729 -1.095872
C   0.643039 -1.500185  0.581212
H   0.638672 -2.577820  0.482885
H   0.110140 -1.088337  1.427310
H   1.838287 -1.209526 -1.095733
C  -1.854137 -0.660210 -0.314451
C  -1.853116  0.662853 -0.314498
H  -2.180728 -1.231105  0.546288
H  -1.544073 -1.229403 -1.180208
H  -2.178833  1.234313  0.546197
H  -1.542197  1.231510 -1.180301
          16
 PATH POINT :          20
C   0.628991  1.494654  0.575877
C   1.300211  0.728468 -0.282391
H   0.615530  2.572026  0.475205
H   0.100369  1.081111  1.423478
C   1.299128 -0.730396 -0.282341
H   1.833963  1.208132 -1.095890
C   0.626678 -1.495480  0.575946
H   0.611579 -2.572845  0.475400
H   0.098605 -1.081010  1.423429
H   1.832211 -1.210914 -1.095773
C  -1.832327 -0.660395 -0.308520
C  -1.831313  0.663002 -0.308572
H  -2.160729 -1.231294  0.551413
H  -1.526569 -1.229564 -1.175625
H  -2.158846  1.234472  0.551314
H  -1.524710  1.231640 -1.175728
          16
 PATH POINT :          21
C   0.612402  1.489489  0.570368
C   1.295951  0.727681 -0.282798
H   0.587474  2.566446  0.467164
H   0.089940  1.073443  1.420188
C   1.294856 -0.729598 -0.282754
H   1.828059  1.209521 -1.096005
C   0.610096 -1.490291  0.570434
H   0.583519 -2.567223  0.467342
H   0.088201 -1.073334  1.420149
H   1.826279 -1.212289 -1.095905
C  -1.810701 -0.660645 -0.302422
C  -1.809693  0.663217 -0.302480
H  -2.142011 -1.231461  0.556319
H  -1.510061 -1.229751 -1.171148
H  -2.140135  1.234612  0.556212
H  -1.508213  1.231796 -1.171259
          16
 PATH POINT :          22
C   0.595562  1.483864  0.564596
C   1.292231  0.726737 -0.283084
H   0.558951  2.560252  0.458672
H   0.080821  1.065729  1.417705
C   1.291127 -0.728646 -0.283045
H   1.822406  1.210835 -1.096129
C   0.593265 -1.484643  0.564660
H   0.554999 -2.560986  0.458835
H   0.079105 -1.065618  1.417676
H   1.820602 -1.213590 -1.096040
C  -1.789228 -0.661002 -0.296166
C  -1.788222  0.663541 -0.296227
H  -2.124724 -1.231624  0.560931
H  -1.494921 -1.229952 -1.166942
H  -2.122849  1.234751  0.560818
H  -1.493076  1.231969 -1.167060
          16
 PATH POINT :          23
C   0.578480  1.477816  0.558572
C   1.288986  0.725600 -0.283259
H   0.530437  2.553499  0.449898
H   0.073007  1.058173  1.416094
C   1.287875 -0.727501 -0.283222
H   1.817112  1.212013 -1.096169
C   0.576191 -1.478570  0.558634
H   0.526490 -2.554189  0.450048
H   0.071311 -1.058062  1.416076
H   1.815290 -1.214757 -1.096088
C  -1.767864 -0.661505 -0.289765
C  -1.766857  0.664011 -0.289830
H  -2.108998 -1.231791  0.565172
H  -1.481380 -1.230167 -1.163115
H  -2.107117  1.234899  0.565054
H  -1.479532  1.232159 -1.163238
          16
 PATH POINT :          24
C   0.561117  1.471390  0.552306
C   1.286174  0.724214 -0.283346
H   0.502549  2.546301  0.441080
H   0.066742  1.051055  1.415600
C   1.285059 -0.726109 -0.283310
H   1.812317  1.212990 -1.096040
C   0.558835 -1.472118  0.552367
H   0.498611 -2.546948  0.441218
H   0.065065 -1.050947  1.415594
H   1.810481 -1.215724 -1.095965
C  -1.746557 -0.662226 -0.283228
C  -1.745548  0.664698 -0.283297
H  -2.095243 -1.231948  0.568874
H  -1.469716 -1.230416 -1.159780
H  -2.093354  1.235041  0.568752
H  -1.467860  1.232384 -1.159907
          16
 PATH POINT :          25
C   0.543435  1.464649  0.545828
C   1.283759  0.722508 -0.283398
H   0.475920  2.538826  0.432486
H   0.062419  1.044715  1.416558
C   1.282643 -0.724396 -0.283364
H   1.808197  1.213698 -1.095658
C   0.541160 -1.465351  0.545888
H   0.471993 -2.539431  0.432613
H   0.060762 -1.044614  1.416566
H   1.806349 -1.216424 -1.095589
C  -1.725258 -0.663266 -0.276561
C  -1.724245  0.665705 -0.276633
H  -2.083947 -1.232069  0.571844
H  -1.460340 -1.230706 -1.157082
H  -2.082048  1.235150  0.571717
H  -1.458472  1.232654 -1.157212
          16
 PATH POINT :          26
C   0.525412  1.457698  0.539198
C   1.281727  0.720392 -0.283491
H   0.451116  2.531295  0.424411
H   0.060364  1.039476  1.419213
C   1.280611 -0.722276 -0.283457
H   1.805002  1.214091 -1.094909
C   0.523143 -1.458371  0.539258
H   0.447201 -2.531861  0.424532
H   0.058725 -1.039386  1.419237
H   1.803145 -1.216810 -1.094844
C  -1.703947 -0.664765 -0.269776
C  -1.702929  0.667169 -0.269851
H  -2.075555 -1.232109  0.573900
H  -1.453720 -1.231017 -1.155180
H  -2.073646  1.235182  0.573768
H  -1.451836  1.232948 -1.155313
          16
 PATH POINT :          27
C   0.507055  1.450681  0.532509
C   1.280067  0.717821 -0.283713
H   0.428562  2.523962  0.417139
H   0.060575  1.035518  1.423497
C   1.278954 -0.719699 -0.283679
H   1.802988  1.214181 -1.093677
C   0.504792 -1.451324  0.532568
H   0.424659 -2.524491  0.417256
H   0.058949 -1.035441  1.423536
H   1.801125 -1.216894 -1.093614
C  -1.682648 -0.666856 -0.262894
C  -1.681625  0.669225 -0.262972
H  -2.070196 -1.231988  0.574971
H  -1.450084 -1.231281 -1.154134
H  -2.068280  1.235055  0.574833
H  -1.448181  1.233197 -1.154267
          16
 PATH POINT :          28
C   0.488430  1.443719  0.525840
C   1.278714  0.714837 -0.284127
H   0.408267  2.516978  0.410760
H   0.062600  1.032795  1.428947
C   1.277604 -0.716711 -0.284094
H   1.802253  1.214052 -1.091889
C   0.486174 -1.444331  0.525900
H   0.404376 -2.517474  0.410877
H   0.060981 -1.032729  1.428996
H   1.800383 -1.216763 -1.091829
C  -1.661407 -0.669570 -0.255931
C  -1.660377  0.671902 -0.256012
H  -2.067368 -1.231608  0.575194
H  -1.449073 -1.231383 -1.153764
H  -2.065448  1.234673  0.575051
H  -1.447148  1.233287 -1.153898
          16
 PATH POINT :          29
C   0.469615  1.436868  0.519237
C   1.277575  0.711529 -0.284754
H   0.389946  2.510371  0.405203
H   0.065972  1.031163  1.435047
C   1.276464 -0.713399 -0.284721
H   1.802776  1.213801 -1.089496
C   0.467364 -1.437446  0.519297
H   0.386061 -2.510834  0.405322
H   0.064353 -1.031103  1.435103
H   1.800896 -1.216514 -1.089437
C  -1.640253 -0.672868 -0.248911
C  -1.639211  0.675161 -0.248992
H  -2.066384 -1.230873  0.574759
H  -1.450028 -1.231224 -1.153777
H  -2.064458  1.233936  0.574611
H  -1.448076  1.233118 -1.153911
          16
 PATH POINT :          30
C   0.450641  1.430171  0.512744
C   1.276608  0.707968 -0.285600
H   0.373349  2.504144  0.400393
H   0.070544  1.030507  1.441485
C   1.275492 -0.709833 -0.285567
H   1.804549  1.213506 -1.086456
C   0.448385 -1.430711  0.512803
H   0.369459 -2.504573  0.400517
H   0.068916 -1.030444  1.441545
H   1.802652 -1.216225 -1.086398
C  -1.619211 -0.676728 -0.241863
C  -1.618148  0.678978 -0.241943
H  -2.066870 -1.229701  0.573731
H  -1.452472 -1.230746 -1.153946
H  -2.064925  1.232759  0.573583
H  -1.450481  1.232628 -1.154076
          16
 PATH POINT :          31
C   0.440060  1.417490  0.496430
C   1.303280  0.700130 -0.292110
H   0.373420  2.492990  0.389160
H   0.112030  1.032360  1.451050
C   1.302120 -0.701990 -0.292060
H   1.840430  1.213000 -1.081970
C   0.437740 -1.417980  0.496500
H   0.369450 -2.493370  0.389220
H   0.110430 -1.032340  1.451170
H   1.838480 -1.215770 -1.081870
C  -1.549920 -0.686720 -0.231880
C  -1.548710  0.688810 -0.231900
H  -2.044750 -1.225910  0.565220
H  -1.433280 -1.229080 -1.158450
H  -2.042640  1.228900  0.565160
H  -1.431020  1.230730 -1.158610
          16
 PATH POINT :          32
C   0.392778  1.411335  0.494534
C   1.274981  0.696065 -0.289566
H   0.332915  2.487727  0.390241
H   0.092331  1.034008  1.462176
C   1.273828 -0.697889 -0.289516
H   1.817637  1.212840 -1.073086
C   0.390467 -1.411762  0.494602
H   0.328969 -2.488057  0.390310
H   0.090727 -1.033958  1.462286
H   1.815690 -1.215583 -1.072985
C  -1.557253 -0.692255 -0.221010
C  -1.556046  0.694362 -0.221032
H  -2.076794 -1.223606  0.566183
H  -1.466843 -1.227786 -1.155099
H  -2.074721  1.226643  0.566114
H  -1.464599  1.229493 -1.155264
          16
 PATH POINT :          33
C   0.373198  1.405582  0.489114
C   1.274898  0.691793 -0.291490
H   0.322932  2.483086  0.388406
H   0.102962  1.037129  1.469672
C   1.273788 -0.693657 -0.291457
H   1.824695  1.212901 -1.067078
C   0.370950 -1.406004  0.489168
H   0.319095 -2.483444  0.388557
H   0.101297 -1.037084  1.469708
H   1.822774 -1.215663 -1.067013
C  -1.537086 -0.698882 -0.214158
C  -1.535976  0.701007 -0.214232
H  -2.082888 -1.220751  0.561940
H  -1.474346 -1.225465 -1.156133
H  -2.080995  1.223822  0.561779
H  -1.472330  1.227378 -1.156264
          16
 PATH POINT :          34
C   0.353552  1.400113  0.483891
C   1.275073  0.687571 -0.293639
H   0.314122  2.478745  0.386725
H   0.114590  1.041250  1.476912
C   1.273978 -0.689444 -0.293607
H   1.832625  1.213141 -1.060558
C   0.351321 -1.400513  0.483943
H   0.310302 -2.479099  0.386887
H   0.112929 -1.041215  1.476945
H   1.830715 -1.215919 -1.060496
C  -1.517291 -0.706234 -0.207327
C  -1.516193  0.708344 -0.207406
H  -2.090015 -1.217363  0.556989
H  -1.481927 -1.222907 -1.156766
H  -2.088147  1.220455  0.556826
H  -1.479945  1.224851 -1.156903
          16
 PATH POINT :          35
C   0.333858  1.394820  0.478803
C   1.275363  0.683534 -0.295908
H   0.306068  2.474562  0.385101
H   0.126616  1.046068  1.483541
C   1.274279 -0.685413 -0.295877
H   1.841378  1.213632 -1.053371
C   0.331636 -1.395196  0.478854
H   0.302263 -2.474910  0.385271
H   0.124954 -1.046049  1.483571
H   1.839473 -1.216428 -1.053311
C  -1.497696 -0.714022 -0.200492
C  -1.496599  0.716113 -0.200576
H  -2.097593 -1.213422  0.551461
H  -1.489454 -1.219799 -1.157166
H  -2.095738  1.216537  0.551296
H  -1.487488  1.221769 -1.157304
          16
 PATH POINT :          36
C   0.314112  1.389599  0.473699
C   1.275588  0.679838 -0.298212
H   0.298172  2.470377  0.383232
H   0.138503  1.051406  1.489194
C   1.274513 -0.681722 -0.298182
H   1.850843  1.214456 -1.045395
C   0.311900 -1.389951  0.473748
H   0.294380 -2.470718  0.383407
H   0.136839 -1.051407  1.489223
H   1.848939 -1.217270 -1.045335
C  -1.478162 -0.721939 -0.193594
C  -1.477059  0.724009 -0.193680
H  -2.104645 -1.209042  0.545742
H  -1.496154 -1.216190 -1.157122
H  -2.102802  1.212177  0.545575
H  -1.494199  1.218183 -1.157260
          16
 PATH POINT :          37
C   0.294332  1.384373  0.468454
C   1.275595  0.676579 -0.300493
H   0.289943  2.466073  0.380862
H   0.149668  1.057071  1.493568
C   1.274526 -0.678466 -0.300464
H   1.860897  1.215673 -1.036519
C   0.292129 -1.384699  0.468503
H   0.286162 -2.466406  0.381040
H   0.147999 -1.057095  1.493597
H   1.858992 -1.218506 -1.036459
C  -1.458571 -0.729733 -0.186572
C  -1.457460  0.731782 -0.186660
H  -2.110401 -1.204349  0.540200
H  -1.501347 -1.212157 -1.156435
H  -2.108571  1.207499  0.540032
H  -1.499405  1.214169 -1.156574
          16
 PATH POINT :          38
C   0.274555  1.379101  0.462992
C   1.275287  0.673784 -0.302715
H   0.281063  2.461601  0.377830
H   0.159686  1.062846  1.496544
C   1.274222 -0.675674 -0.302687
H   1.871406  1.217306 -1.026670
C   0.272362 -1.379403  0.463042
H   0.277294 -2.461923  0.378008
H   0.158011 -1.062891  1.496574
H   1.869500 -1.220159 -1.026610
C  -1.438870 -0.737234 -0.179400
C  -1.437751  0.739260 -0.179489
H  -2.114377 -1.199464  0.535047
H  -1.504565 -1.207799 -1.154967
H  -2.112561  1.202624  0.534878
H  -1.502637  1.209825 -1.155107
          16
 PATH POINT :          39
C   0.254832  1.373771  0.457269
C   1.274600  0.671439 -0.304852
H   0.271323  2.456949  0.374035
H   0.168317  1.068542  1.498156
C   1.273538 -0.673331 -0.304824
H   1.882232  1.219351 -1.015804
C   0.252651 -1.374049  0.457320
H   0.267566 -2.457259  0.374213
H   0.166637 -1.068606  1.498189
H   1.880324 -1.222223 -1.015743
C  -1.419043 -0.744320 -0.172074
C  -1.417915  0.746325 -0.172164
H  -2.116292 -1.194562  0.530453
H  -1.505558 -1.203251 -1.152692
H  -2.114493  1.197726  0.530283
H  -1.503644  1.205286 -1.152834
          16
 PATH POINT :          40
C   0.235230  1.368392  0.451271
C   1.273491  0.669509 -0.306889
H   0.260578  2.452124  0.369414
H   0.175411  1.074046  1.498439
C   1.272431 -0.671401 -0.306862
H   1.893253  1.221783 -1.003874
C   0.233061 -1.368646  0.451323
H   0.256833 -2.452422  0.369592
H   0.173724 -1.074125  1.498473
H   1.891342 -1.224675 -1.003811
C  -1.399094 -0.750913 -0.164604
C  -1.397957  0.752897 -0.164694
H  -2.116044 -1.189797  0.526559
H  -1.504223 -1.198623 -1.149663
H  -2.114262  1.192959  0.526388
H  -1.502324  1.200662 -1.149806
          16
 PATH POINT :          41
C   0.215823  1.362990  0.445004
C   1.271924  0.667941 -0.308824
H   0.248730  2.447157  0.363918
H   0.180814  1.079305  1.497430
C   1.270866 -0.669834 -0.308797
H   1.904390  1.224576 -0.990796
C   0.213668 -1.363220  0.445059
H   0.244998 -2.447442  0.364095
H   0.179120 -1.079395  1.497464
H   1.902474 -1.227487 -0.990732
C  -1.379035 -0.756960 -0.157006
C  -1.377889  0.758923 -0.157095
H  -2.113643 -1.185256  0.523445
H  -1.500557 -1.193951 -1.145970
H  -2.111876  1.188414  0.523273
H  -1.498672  1.195991 -1.146113
          16
 PATH POINT :          42
C   0.196692  1.357611  0.438482
C   1.269861  0.666683 -0.310658
H   0.235708  2.442101  0.357493
H   0.184477  1.084342  1.495265
C   1.268806 -0.668576 -0.310632
H   1.915612  1.227691 -0.976428
C   0.194552 -1.357819  0.438540
H   0.231990 -2.442371  0.357671
H   0.182774 -1.084439  1.495300
H   1.913690 -1.230622 -0.976365
C  -1.358880 -0.762411 -0.149299
C  -1.357726  0.764352 -0.149386
H  -2.109199 -1.180966  0.521134
H  -1.494636 -1.189200 -1.141727
H  -2.107442  1.184120  0.520963
H  -1.492764  1.191238 -1.141868
          16
 PATH POINT :          43
C   0.177927  1.352323  0.431717
C   1.267246  0.665682 -0.312397
H   0.221449  2.437031  0.350041
H   0.186467  1.089280  1.492124
C   1.266192 -0.667574 -0.312371
H   1.926934  1.231073 -0.960557
C   0.175805 -1.352508  0.431779
H   0.217745 -2.437286  0.350221
H   0.184757 -1.089381  1.492162
H   1.925005 -1.234024 -0.960497
C  -1.338642 -0.767198 -0.141505
C  -1.337479  0.769118 -0.141590
H  -2.102868 -1.176901  0.519606
H  -1.486583 -1.184269 -1.137054
H  -2.101117  1.180050  0.519438
H  -1.484723  1.186303 -1.137193
          16
 PATH POINT :          44
C   0.159651  1.347232  0.424716
C   1.263973  0.664892 -0.314048
H   0.205840  2.432052  0.341352
H   0.186941  1.094383  1.488193
C   1.262922 -0.666783 -0.314023
H   1.938464  1.234654 -0.942819
C   0.157550 -1.347397  0.424782
H   0.202153 -2.432291  0.341535
H   0.185227 -1.094487  1.488234
H   1.936527 -1.237626 -0.942764
C  -1.318334 -0.771211 -0.133641
C  -1.317161  0.773111 -0.133723
H  -2.094773 -1.172998  0.518835
H  -1.476495 -1.178979 -1.132067
H  -2.093023  1.176144  0.518671
H  -1.474645  1.181009 -1.132201
          16
 PATH POINT :          45
C   0.142069  1.342539  0.417476
C   1.259850  0.664274 -0.315620
H   0.188688  2.427339  0.330972
H   0.186164  1.100171  1.483658
C   1.258801 -0.666162 -0.315596
H   1.950474  1.238348 -0.922529
C   0.139990 -1.342686  0.417547
H   0.185020 -2.427560  0.331158
H   0.184450 -1.100280  1.483705
H   1.948529 -1.241338 -0.922482
C  -1.297986 -0.774236 -0.125719
C  -1.296805  0.776115 -0.125798
H  -2.084975 -1.169166  0.518810
H  -1.464399 -1.173041 -1.126868
H  -2.083225  1.172307  0.518652
H  -1.462559  1.175065 -1.126996
          16
 PATH POINT :          46
C   0.125591  1.338708  0.409974
C   1.254511  0.663801 -0.317110
H   0.169721  2.423280  0.317876
H   0.184623  1.107792  1.478730
C   1.253466 -0.665685 -0.317086
H   1.963587  1.241978 -0.898308
C   0.123536 -1.338839  0.410051
H   0.166072 -2.423482  0.318064
H   0.182913 -1.107907  1.478785
H   1.961635 -1.244988 -0.898271
C  -1.277714 -0.775839 -0.117757
C  -1.276526  0.777699 -0.117832
H  -2.073540 -1.165236  0.519514
H  -1.450261 -1.165941 -1.121570
H  -2.071788  1.168372  0.519362
H  -1.448432  1.167960 -1.121692
          16
 PATH POINT :          47
C   0.111307  1.337167  0.402125
C   1.247269  0.663461 -0.318393
H   0.148919  2.421049  0.299273
H   0.183532  1.120536  1.473765
C   1.246231 -0.665338 -0.318371
H   1.979368  1.244829 -0.867146
C   0.109270 -1.337286  0.402207
H   0.145286 -2.421230  0.299459
H   0.181825 -1.120664  1.473827
H   1.977412 -1.247864 -0.867120
C  -1.258086 -0.775175 -0.109812
C  -1.256896  0.777020 -0.109883
H  -2.060939 -1.160850  0.520806
H  -1.434316 -1.156694 -1.116378
H  -2.059186  1.163982  0.520663
H  -1.432503  1.158709 -1.116493
          16
 PATH POINT :          48
C   0.102923  1.343819  0.393246
C   1.238536  0.663272 -0.317910
H   0.130701  2.425563  0.265912
H   0.186557  1.151102  1.469367
C   1.237509 -0.665146 -0.317887
H   2.000163  1.243054 -0.827159
C   0.100889 -1.343936  0.393331
H   0.127058 -2.425729  0.266081
H   0.184827 -1.151262  1.469437
H   1.998224 -1.246132 -0.827125
C  -1.243334 -0.772013 -0.102180
C  -1.242154  0.773857 -0.102248
H  -2.050984 -1.156141  0.522868
H  -1.421702 -1.144794 -1.111618
H  -2.049236  1.159279  0.522735
H  -1.419918  1.146818 -1.111726
          16
 PATH POINT :          49
C   0.101503  1.358850  0.381651
C   1.237782  0.663243 -0.312050
H   0.124719  2.436479  0.219743
H   0.190711  1.200638  1.463399
C   1.236759 -0.665135 -0.312022
H   2.016835  1.236101 -0.801203
C   0.099440 -1.358973  0.381735
H   0.121029 -2.436648  0.219900
H   0.188906 -1.200824  1.463472
H   2.014935 -1.239217 -0.801136
C  -1.241946 -0.771452 -0.095565
C  -1.240770  0.773320 -0.095631
H  -2.047616 -1.154622  0.532441
H  -1.430327 -1.137988 -1.105542
H  -2.045868  1.157780  0.532320
H  -1.428557  1.140059 -1.105644
          16
 PATH POINT :          50
C   0.100304  1.370881  0.367801
C   1.241714  0.663149 -0.304863
H   0.120620  2.443477  0.174170
H   0.193054  1.246918  1.453818
C   1.240686 -0.665069 -0.304830
H   2.034852  1.231406 -0.776542
C   0.098203 -1.371004  0.367889
H   0.116883 -2.443646  0.174345
H   0.191149 -1.247090  1.453894
H   2.032955 -1.234580 -0.776458
C  -1.244761 -0.771519 -0.088476
C  -1.243579  0.773412 -0.088530
H  -2.043451 -1.153855  0.548928
H  -1.449500 -1.134118 -1.096778
H  -2.041683  1.157024  0.548841
H  -1.447743  1.136257 -1.096861
