15

C   2.148146   0.511328   0.012555
C   2.054564  -0.882117   0.001422
C   1.016416   1.292485   0.011198
C  -0.225591   0.647896  -0.001259
N  -0.305826  -0.682637  -0.007071
C   0.795508  -1.429566  -0.008346
H   0.640440  -2.502383  -0.018077
H   3.122037   0.984706   0.020822
H   2.933418  -1.509596  -0.000234
H   1.053396   2.372027   0.016722
O  -1.338120   1.366048  -0.007844
H  -2.120387   0.738557  -0.035275
O  -2.792486  -0.641051  -0.079438
H  -1.867081  -1.019694  -0.006350
H  -3.310452  -0.925276   0.676727
15

C   2.146653   0.512917   0.012558
C   2.054368  -0.880686   0.001476
C   1.014448   1.293563   0.011177
C  -0.227333   0.648178  -0.001297
N  -0.305450  -0.682708  -0.007129
C   0.795879  -1.429176  -0.008345
H   0.641278  -2.502060  -0.018067
H   3.120231   0.986959   0.020826
H   2.933779  -1.507369  -0.000129
H   1.051124   2.373121   0.016704
O  -1.341331   1.363209  -0.007863
H  -2.122337   0.732491  -0.035855
O  -2.786798  -0.641940  -0.079518
H  -1.859947  -1.019603  -0.005413
H  -3.305037  -0.923513   0.677464
15

C   2.145219   0.514490   0.012559
C   2.054164  -0.879277   0.001533
C   1.012544   1.294636   0.011153
C  -0.229065   0.648488  -0.001335
N  -0.305101  -0.682762  -0.007193
C   0.796225  -1.428784  -0.008341
H   0.642092  -2.501738  -0.018055
H   3.118493   0.989179   0.020828
H   2.934104  -1.505201  -0.000020
H   1.048952   2.374209   0.016686
O  -1.344546   1.360301  -0.007883
H  -2.124300   0.726312  -0.036387
O  -2.781158  -0.642762  -0.079598
H  -1.852800  -1.019403  -0.004441
H  -3.299720  -0.921653   0.678166
15

C   2.143848   0.516046   0.012560
C   2.053950  -0.877889   0.001593
C   1.010709   1.295701   0.011127
C  -0.230789   0.648828  -0.001373
N  -0.304787  -0.682803  -0.007264
C   0.796543  -1.428397  -0.008334
H   0.642886  -2.501421  -0.018041
H   3.116826   0.991368   0.020826
H   2.934391  -1.503096   0.000091
H   1.046892   2.375288   0.016667
O  -1.347758   1.357327  -0.007907
H  -2.126273   0.720013  -0.036857
O  -2.775573  -0.643515  -0.079677
H  -1.845624  -1.019067  -0.003434
H  -3.294510  -0.919691   0.678833
15

C   2.142544   0.517587   0.012558
C   2.053728  -0.876528   0.001656
C   1.008948   1.296756   0.011100
C  -0.232506   0.649206  -0.001411
N  -0.304519  -0.682831  -0.007341
C   0.796836  -1.428021  -0.008323
H   0.643669  -2.501117  -0.018026
H   3.115232   0.993530   0.020822
H   2.934642  -1.501057   0.000207
H   1.044950   2.376357   0.016648
O  -1.350960   1.354282  -0.007937
H  -2.128259   0.713591  -0.037246
O  -2.770050  -0.644196  -0.079758
H  -1.838401  -1.018559  -0.002390
H  -3.289417  -0.917623   0.679461
15

C   2.141309   0.519115   0.012555
C   2.053500  -0.875198   0.001721
C   1.007268   1.297797   0.011070
C  -0.234222   0.649633  -0.001448
N  -0.304309  -0.682850  -0.007425
C   0.797102  -1.427661  -0.008308
H   0.644451  -2.500834  -0.018009
H   3.113713   0.995670   0.020815
H   2.934859  -1.499089   0.000326
H   1.043132   2.377411   0.016626
O  -1.354147   1.351169  -0.007974
H  -2.130254   0.707032  -0.037533
O  -2.764594  -0.644804  -0.079840
H  -1.831099  -1.017833  -0.001317
H  -3.284457  -0.915441   0.680045
15

C   2.140148   0.520633   0.012551
C   2.053268  -0.873901   0.001790
C   1.005675   1.298819   0.011037
C  -0.235947   0.650121  -0.001485
N  -0.304173  -0.682863  -0.007518
C   0.797352  -1.427330  -0.008288
H   0.645245  -2.500584  -0.017992
H   3.112269   0.997795   0.020805
H   2.935046  -1.497192   0.000450
H   1.041439   2.378444   0.016601
O  -1.357305   1.347988  -0.008020
H  -2.132252   0.700315  -0.037694
O  -2.759217  -0.645340  -0.079921
H  -1.823677  -1.016831  -0.000226
H  -3.279658  -0.913133   0.680578
15

C   2.139059   0.522143   0.012547
C   2.053033  -0.872641   0.001864
C   1.004177   1.299813   0.010999
C  -0.237691   0.650690  -0.001521
N  -0.304124  -0.682873  -0.007615
C   0.797591  -1.427037  -0.008261
H   0.646070  -2.500379  -0.017972
H   3.110903   0.999911   0.020791
H   2.935206  -1.495371   0.000578
H   1.039870   2.379452   0.016568
O  -1.360421   1.344739  -0.008078
H  -2.134239   0.693400  -0.037702
O  -2.753932  -0.645808  -0.080001
H  -1.816077  -1.015471   0.000853
H  -3.275057  -0.910683   0.681047
15

C   2.138045   0.523652   0.012541
C   2.052799  -0.871426   0.001943
C   1.002785   1.300772   0.010957
C  -0.239473   0.651364  -0.001557
N  -0.304184  -0.682890  -0.007717
C   0.797835  -1.426797  -0.008224
H   0.646941  -2.500234  -0.017947
H   3.109613   1.002020   0.020774
H   2.935339  -1.493631   0.000714
H   1.038415   2.380424   0.016526
O  -1.363472   1.341430  -0.008149
H  -2.136193   0.686225  -0.037527
O  -2.748759  -0.646213  -0.080074
H  -1.808208  -1.013644   0.001869
H  -3.270716  -0.908066   0.681437
15

C   2.137105   0.525164   0.012534
C   2.052566  -0.870261   0.002028
C   1.001513   1.301683   0.010910
C  -0.241318   0.652176  -0.001594
N  -0.304370  -0.682921  -0.007822
C   0.798100  -1.426626  -0.008174
H   0.647875  -2.500160  -0.017913
H   3.108404   1.004119   0.020752
H   2.935449  -1.491980   0.000858
H   1.037055   2.381348   0.016470
O  -1.366428   1.338074  -0.008237
H  -2.138081   0.678685  -0.037142
O  -2.743728  -0.646563  -0.080132
H  -1.799938  -1.011211   0.002735
H  -3.266726  -0.905251   0.681722
15

C   2.136237   0.526682   0.012525
C   2.052334  -0.869159   0.002123
C   1.000380   1.302526   0.010853
C  -0.243251   0.653159  -0.001630
N  -0.304698  -0.682981  -0.007922
C   0.798409  -1.426538  -0.008110
H   0.648876  -2.500172  -0.017862
H   3.107280   1.006195   0.020723
H   2.935529  -1.490433   0.001014
H   1.035760   2.382211   0.016394
O  -1.369240   1.334699  -0.008343
H  -2.139882   0.670624  -0.036525
O  -2.738892  -0.646870  -0.080164
H  -1.791060  -1.008012   0.003327
H  -3.263221  -0.902203   0.681866
15

C   2.135438   0.528201   0.012514
C   2.052102  -0.868137   0.002228
C   0.999411   1.303284   0.010787
C  -0.245298   0.654339  -0.001669
N  -0.305178  -0.683085  -0.008010
C   0.798780  -1.426544  -0.008024
H   0.649935  -2.500266  -0.017785
H   3.106252   1.008218   0.020685
H   2.935577  -1.489007   0.001182
H   1.034498   2.382992   0.016292
O  -1.371838   1.331367  -0.008466
H  -2.141648   0.661794  -0.035678
O  -2.734333  -0.647138  -0.080155
H  -1.781226  -1.003930   0.003497
H  -3.260372  -0.898896   0.681835
15

C   2.134709   0.529698   0.012501
C   2.051867  -0.867216   0.002340
C   0.998629   1.303934   0.010710
C  -0.247457   0.655715  -0.001709
N  -0.305799  -0.683238  -0.008079
C   0.799223  -1.426643  -0.007917
H   0.651015  -2.500431  -0.017677
H   3.105334   1.010136   0.020639
H   2.935580  -1.487730   0.001361
H   1.033241   2.383670   0.016163
O  -1.374124   1.328189  -0.008603
H  -2.143629   0.651863  -0.034636
O  -2.730193  -0.647360  -0.080096
H  -1.769874  -0.999055   0.003126
H  -3.258368  -0.895349   0.681610
15

C   2.134055   0.531125   0.012484
C   2.051628  -0.866421   0.002457
C   0.998051   1.304465   0.010628
C  -0.249672   0.657239  -0.001749
N  -0.306523  -0.683434  -0.008123
C   0.799715  -1.426817  -0.007793
H   0.652042  -2.500628  -0.017540
H   3.104545   1.011873   0.020587
H   2.935528  -1.486634   0.001545
H   1.031999   2.384228   0.016013
O  -1.375978   1.325334  -0.008744
H  -2.146359   0.640536  -0.033493
O  -2.726667  -0.647501  -0.079989
H  -1.756253  -0.993889   0.002233
H  -3.257342  -0.891663   0.681220
15

C   2.133488   0.532415   0.012468
C   2.051386  -0.865770   0.002568
C   0.997667   1.304881   0.010545
C  -0.251820   0.658798  -0.001790
N  -0.307281  -0.683643  -0.008145
C   0.800208  -1.427027  -0.007667
H   0.652938  -2.500811  -0.017387
H   3.103899   1.013359   0.020534
H   2.935418  -1.485741   0.001719
H   1.030822   2.384665   0.015858
O  -1.377323   1.322976  -0.008875
H  -2.150358   0.627924  -0.032380
O  -2.723943  -0.647518  -0.079858
H  -1.739943  -0.989291   0.001038
H  -3.257249  -0.888052   0.680746
15

C   2.133006   0.533533   0.012452
C   2.051150  -0.865251   0.002667
C   0.997431   1.305200   0.010470
C  -0.253790   0.660279  -0.001827
N  -0.308009  -0.683837  -0.008149
C   0.800659  -1.427234  -0.007549
H   0.653667  -2.500949  -0.017238
H   3.103384   1.014576   0.020483
H   2.935265  -1.485035   0.001872
H   1.029758   2.384999   0.015712
O  -1.378197   1.321163  -0.008989
H  -2.155667   0.614616  -0.031394
O  -2.722032  -0.647404  -0.079728
H  -1.721402  -0.985882  -0.000205
H  -3.257837  -0.884710   0.680270
15

C   2.132595   0.534489   0.012437
C   2.050920  -0.864839   0.002751
C   0.997293   1.305452   0.010403
C  -0.255553   0.661641  -0.001860
N  -0.308679  -0.684002  -0.008143
C   0.801050  -1.427422  -0.007444
H   0.654243  -2.501040  -0.017099
H   3.102972   1.015566   0.020438
H   2.935086  -1.484477   0.002005
H   1.028821   2.385255   0.015580
O  -1.378712   1.319812  -0.009082
H  -2.161980   0.601128  -0.030578
O  -2.720777  -0.647179  -0.079609
H  -1.701478  -0.983727  -0.001379
H  -3.258830  -0.881683   0.679838
15

C   2.132240   0.535312   0.012424
C   2.050701  -0.864506   0.002824
C   0.997218   1.305658   0.010343
C  -0.257126   0.662881  -0.001891
N  -0.309285  -0.684135  -0.008131
C   0.801384  -1.427586  -0.007351
H   0.654696  -2.501092  -0.016973
H   3.102637   1.016381   0.020396
H   2.934892  -1.484028   0.002117
H   1.027999   2.385459   0.015462
O  -1.378971   1.318820  -0.009157
H  -2.169031   0.587670  -0.029921
O  -2.720014  -0.646873  -0.079506
H  -1.680802  -0.982635  -0.002416
H  -3.260024  -0.878944   0.679461
15

C   2.131929   0.536027   0.012410
C   2.050488  -0.864235   0.002886
C   0.997188   1.305832   0.010290
C  -0.258540   0.664019  -0.001919
N  -0.309832  -0.684240  -0.008117
C   0.801668  -1.427729  -0.007270
H   0.655052  -2.501115  -0.016859
H   3.102359   1.017057   0.020359
H   2.934689  -1.483665   0.002215
H   1.027283   2.385628   0.015358
O  -1.379041   1.318106  -0.009218
H  -2.176677   0.574249  -0.029381
O  -2.719605  -0.646503  -0.079420
H  -1.659810  -0.982345  -0.003275
H  -3.261304  -0.876430   0.679130
15

C   2.131654   0.536659   0.012398
C   2.050280  -0.864011   0.002940
C   0.997194   1.305982   0.010241
C  -0.259833   0.665080  -0.001945
N  -0.310331  -0.684320  -0.008101
C   0.801913  -1.427856  -0.007199
H   0.655337  -2.501121  -0.016756
H   3.102128   1.017629   0.020326
H   2.934478  -1.483369   0.002301
H   1.026654   2.385770   0.015263
O  -1.378970   1.317597  -0.009272
H  -2.184852   0.560770  -0.028904
O  -2.719434  -0.646080  -0.079351
H  -1.638822  -0.982629  -0.003977
H  -3.262621  -0.874068   0.678833
15

C   2.131408   0.537229   0.012385
C   2.050074  -0.863827   0.002989
C   0.997229   1.306116   0.010196
C  -0.261041   0.666093  -0.001971
N  -0.310788  -0.684381  -0.008085
C   0.802129  -1.427974  -0.007133
H   0.655567  -2.501115  -0.016658
H   3.101932   1.018123   0.020294
H   2.934262  -1.483125   0.002380
H   1.026098   2.385894   0.015175
O  -1.378789   1.317241  -0.009321
H  -2.193485   0.547171  -0.028450
O  -2.719422  -0.645612  -0.079292
H  -1.618007  -0.983339  -0.004601
H  -3.263953  -0.871786   0.678558
15

C   2.131182   0.537755   0.012299
C   2.049871  -0.863674   0.003187
C   0.997292   1.306238   0.009947
C  -0.262190   0.667074  -0.002106
N  -0.311213  -0.684426  -0.007958
C   0.802325  -1.428088  -0.006835
H   0.655757  -2.501107  -0.016155
H   3.101764   1.018557   0.020118
H   2.934041  -1.482925   0.002710
H   1.025599   2.386005   0.014711
O  -1.378525   1.316990  -0.009588
H  -2.202470   0.533472  -0.028105
O  -2.719526  -0.645123  -0.079149
H  -1.597378  -0.984348  -0.005054
H  -3.265294  -0.869442   0.678424
15

C   2.130975   0.538241   0.012302
C   2.049667  -0.863552   0.003191
C   0.997379   1.306345   0.009954
C  -0.263295   0.668038  -0.002103
N  -0.311605  -0.684455  -0.007964
C   0.802507  -1.428197  -0.006833
H   0.655916  -2.501093  -0.016162
H   3.101622   1.018937   0.020122
H   2.933816  -1.482761   0.002713
H   1.025150   2.386101   0.014722
O  -1.378187   1.316830  -0.009572
H  -2.211766   0.519628  -0.027668
O  -2.719722  -0.644584  -0.079118
H  -1.577001  -0.985602  -0.005659
H  -3.266629  -0.867246   0.678159
15

C   2.130787   0.538688   0.012305
C   2.049462  -0.863464   0.003193
C   0.997500   1.306440   0.009959
C  -0.264366   0.668997  -0.002102
N  -0.311954  -0.684468  -0.007968
C   0.802677  -1.428306  -0.006833
H   0.656046  -2.501082  -0.016166
H   3.101506   1.019265   0.020126
H   2.933586  -1.482639   0.002715
H   1.024755   2.386183   0.014733
O  -1.377770   1.316757  -0.009552
H  -2.221466   0.505470  -0.027286
O  -2.719990  -0.644003  -0.079096
H  -1.557074  -0.987054  -0.006211
H  -3.267960  -0.865030   0.677912
15

C   2.130489   0.539451   0.012310
C   2.049039  -0.863419   0.003200
C   0.997869   1.306580   0.009970
C  -0.266410   0.670940  -0.002100
N  -0.312490  -0.684440  -0.007960
C   0.802970  -1.428549  -0.006830
H   0.656210  -2.501089  -0.016150
H   3.101368   1.019751   0.020140
H   2.933099  -1.482538   0.002720
H   1.024159   2.386309   0.014760
O  -1.376640   1.316919  -0.009500
H  -2.242529   0.475969  -0.026680
O  -2.720709  -0.642731  -0.079050
H  -1.519229  -0.990440  -0.007310
H  -3.270599  -0.860401   0.677359
15

C   2.130355   0.539802   0.012311
C   2.048823  -0.863428   0.003201
C   0.998086   1.306637   0.009974
C  -0.267414   0.671925  -0.002099
N  -0.312717  -0.684412  -0.007963
C   0.803106  -1.428679  -0.006830
H   0.656245  -2.501103  -0.016158
H   3.101336   1.019922   0.020140
H   2.932833  -1.482550   0.002721
H   1.023931   2.386357   0.014767
O  -1.376013   1.317062  -0.009476
H  -2.253409   0.461050  -0.026387
O  -2.721108  -0.642071  -0.079033
H  -1.500694  -0.992207  -0.007742
H  -3.271985  -0.858059   0.677126
15

C   2.130241   0.540112   0.012314
C   2.048593  -0.863488   0.003202
C   0.998357   1.306674   0.009980
C  -0.268405   0.672929  -0.002100
N  -0.312894  -0.684366  -0.007977
C   0.803230  -1.428819  -0.006831
H   0.656197  -2.501127  -0.016193
H   3.101366   1.019970   0.020133
H   2.932517  -1.482674   0.002722
H   1.023816   2.386376   0.014765
O  -1.375266   1.317309  -0.009459
H  -2.264745   0.446116  -0.026061
O  -2.721598  -0.641398  -0.079029
H  -1.482611  -0.994112  -0.008005
H  -3.273468  -0.855719   0.676993
15

C   2.130130   0.540408   0.012317
C   2.048351  -0.863575   0.003204
C   0.998645   1.306701   0.009985
C  -0.269420   0.673962  -0.002101
N  -0.313034  -0.684309  -0.007980
C   0.803356  -1.428979  -0.006831
H   0.656159  -2.501166  -0.016206
H   3.101384   1.020032   0.020134
H   2.932204  -1.482794   0.002725
H   1.023691   2.386392   0.014770
O  -1.374471   1.317590  -0.009438
H  -2.276068   0.431424  -0.025713
O  -2.722165  -0.640753  -0.079012
H  -1.464459  -0.996226  -0.008440
H  -3.274963  -0.853288   0.676754
15

C   2.130025   0.540692   0.012320
C   2.048094  -0.863696   0.003206
C   0.998962   1.306714   0.009989
C  -0.270462   0.675037  -0.002102
N  -0.313108  -0.684231  -0.007983
C   0.803488  -1.429161  -0.006831
H   0.656098  -2.501223  -0.016217
H   3.101412   1.020066   0.020135
H   2.931874  -1.482950   0.002728
H   1.023597   2.386396   0.014775
O  -1.373616   1.317909  -0.009413
H  -2.287422   0.416976  -0.025343
O  -2.722826  -0.640132  -0.078997
H  -1.446328  -0.998609  -0.008899
H  -3.276576  -0.850776   0.676493
15

C   2.129927   0.540960   0.012246
C   2.047820  -0.863854   0.003403
C   0.999312   1.306716   0.009753
C  -0.271534   0.676162  -0.002238
N  -0.313098  -0.684131  -0.007856
C   0.803630  -1.429371  -0.006543
H   0.656011  -2.501308  -0.015733
H   3.101456   1.020069   0.019979
H   2.931523  -1.483149   0.003058
H   1.023543   2.386390   0.014331
O  -1.372687   1.318280  -0.009658
H  -2.298871   0.402841  -0.025065
O  -2.723597  -0.639558  -0.078895
H  -1.428279  -1.001353  -0.009198
H  -3.278348  -0.848036   0.676325
15

C   2.129835   0.541211   0.012229
C   2.047529  -0.864057   0.003450
C   0.999701   1.306702   0.009700
C  -0.272649   0.677344  -0.002271
N  -0.312991  -0.683998  -0.007828
C   0.803786  -1.429611  -0.006475
H   0.655891  -2.501416  -0.015629
H   3.101516   1.020029   0.019942
H   2.931148  -1.483400   0.003137
H   1.023533   2.386369   0.014231
O  -1.371672   1.318711  -0.009687
H  -2.310396   0.389245  -0.024706
O  -2.724505  -0.639029  -0.078857
H  -1.410239  -1.004547  -0.009657
H  -3.280312  -0.845283   0.676034
15

C   2.129749   0.541443   0.012210
C   2.047218  -0.864310   0.003501
C   1.000133   1.306669   0.009644
C  -0.273815   0.678601  -0.002307
N  -0.312760  -0.683830  -0.007796
C   0.803966  -1.429892  -0.006404
H   0.655738  -2.501559  -0.015517
H   3.101593   1.019945   0.019902
H   2.930747  -1.483708   0.003222
H   1.023577   2.386330   0.014125
O  -1.370557   1.319213  -0.009715
H  -2.321944   0.376395  -0.024352
O  -2.725586  -0.638583  -0.078814
H  -1.392212  -1.008311  -0.010153
H  -3.282543  -0.842387   0.675705
15

C   2.129672   0.541653   0.012191
C   2.046885  -0.864629   0.003557
C   1.000622   1.306614   0.009583
C  -0.275044   0.679951  -0.002345
N  -0.312356  -0.683619  -0.007762
C   0.804182  -1.430224  -0.006325
H   0.655543  -2.501745  -0.015395
H   3.101695   1.019808   0.019859
H   2.930318  -1.484088   0.003319
H   1.023695   2.386274   0.014009
O  -1.369317   1.319806  -0.009744
H  -2.333498   0.364450  -0.023976
O  -2.726888  -0.638243  -0.078764
H  -1.374378  -1.012749  -0.010703
H  -3.285138  -0.839310   0.675327
15

C   2.129611   0.541829   0.012170
C   2.046534  -0.865030   0.003620
C   1.001180   1.306536   0.009516
C  -0.276333   0.681412  -0.002387
N  -0.311726  -0.683353  -0.007725
C   0.804452  -1.430620  -0.006238
H   0.655296  -2.501987  -0.015260
H   3.101827   1.019602   0.019813
H   2.929861  -1.484558   0.003427
H   1.023917   2.386195   0.013881
O  -1.367929   1.320517  -0.009774
H  -2.345041   0.353557  -0.023574
O  -2.728468  -0.638031  -0.078708
H  -1.357059  -1.017963  -0.011322
H  -3.288210  -0.836022   0.674879
15

C   2.129571   0.541956   0.012146
C   2.046173  -0.865526   0.003691
C   1.001818   1.306433   0.009442
C  -0.277665   0.682985  -0.002432
N  -0.310823  -0.683020  -0.007685
C   0.804797  -1.431090  -0.006141
H   0.654990  -2.502292  -0.015114
H   3.101997   1.019311   0.019762
H   2.929390  -1.485129   0.003550
H   1.024281   2.386095   0.013741
O  -1.366381   1.321381  -0.009801
H  -2.356481   0.343944  -0.023189
O  -2.730381  -0.637976  -0.078638
H  -1.340615  -1.024041  -0.012014
H  -3.291880  -0.832531   0.674339
15

C   2.129561   0.542016   0.012120
C   2.045821  -0.866131   0.003770
C   1.002539   1.306308   0.009363
C  -0.278998   0.684657  -0.002479
N  -0.309621  -0.682611  -0.007643
C   0.805238  -1.431643  -0.006036
H   0.654623  -2.502667  -0.014957
H   3.102211   1.018922   0.019705
H   2.928924  -1.485808   0.003687
H   1.024827   2.385974   0.013589
O  -1.364676   1.322432  -0.009822
H  -2.367632   0.335895  -0.022902
O  -2.732685  -0.638113  -0.078547
H  -1.325418  -1.030954  -0.012771
H  -3.296266  -0.828880   0.673676
15

C   2.129589   0.541989   0.012093
C   2.045510  -0.866842   0.003856
C   1.003334   1.306166   0.009280
C  -0.280270   0.686394  -0.002524
N  -0.308121  -0.682134  -0.007603
C   0.805799  -1.432277  -0.005925
H   0.654202  -2.503110  -0.014794
H   3.102470   1.018429   0.019643
H   2.928502  -1.486588   0.003838
H   1.025591   2.385840   0.013430
O  -1.362847   1.323700  -0.009835
H  -2.378257   0.329524  -0.022786
O  -2.735418  -0.638469  -0.078425
H  -1.311860  -1.038439  -0.013575
H  -3.301453  -0.825150   0.672856
15

C   2.129660   0.541859   0.012063
C   2.045280  -0.867647   0.003947
C   1.004188   1.306022   0.009196
C  -0.281403   0.688139  -0.002565
N  -0.306375  -0.681608  -0.007566
C   0.806491  -1.432981  -0.005810
H   0.653753  -2.503613  -0.014631
H   3.102769   1.017837   0.019575
H   2.928174  -1.487444   0.004000
H   1.026595   2.385704   0.013267
O  -1.360950   1.325191  -0.009836
H  -2.388164   0.324641  -0.022910
O  -2.738576  -0.639039  -0.078263
H  -1.300134  -1.045982  -0.014384
H  -3.307454  -0.821453   0.671841
15

C   2.129777   0.541618   0.012032
C   2.045167  -0.868522   0.004041
C   1.005084   1.305887   0.009115
C  -0.282326   0.689842  -0.002600
N  -0.304477  -0.681061  -0.007537
C   0.807308  -1.433742  -0.005695
H   0.653306  -2.504159  -0.014474
H   3.103103   1.017153   0.019502
H   2.927984  -1.488346   0.004169
H   1.027837   2.385574   0.013104
O  -1.359048   1.326891  -0.009824
H  -2.397268   0.320838  -0.023307
O  -2.742124  -0.639793  -0.078059
H  -1.290112  -1.053035  -0.015145
H  -3.314196  -0.817884   0.670610
15

C   2.129943   0.541268   0.011999
C   2.045200  -0.869448   0.004137
C   1.006012   1.305767   0.009038
C  -0.283007   0.691467  -0.002628
N  -0.302524  -0.680509  -0.007519
C   0.808229  -1.434537  -0.005584
H   0.652893  -2.504736  -0.014326
H   3.103472   1.016388   0.019424
H   2.927964  -1.489264   0.004342
H   1.029297   2.385454   0.012947
O  -1.357187   1.328766  -0.009799
H  -2.405599   0.317700  -0.023963
O  -2.746004  -0.640684  -0.077814
H  -1.281532  -1.059235  -0.015811
H  -3.321569  -0.814499   0.669157
15

C   2.130161   0.540812   0.011965
C   2.045388  -0.870410   0.004232
C   1.006973   1.305662   0.008965
C  -0.283437   0.693002  -0.002648
N  -0.300593  -0.679961  -0.007514
C   0.809222  -1.435352  -0.005480
H   0.652533  -2.505331  -0.014191
H   3.103877   1.015548   0.019343
H   2.928127  -1.490188   0.004517
H   1.030953   2.385346   0.012796
O  -1.355387   1.330772  -0.009764
H  -2.413252   0.314942  -0.024826
O  -2.750154  -0.641664  -0.077535
H  -1.274153  -1.064446  -0.016348
H  -3.329446  -0.811299   0.667500
15

C   2.130437   0.540256   0.011931
C   2.045723  -0.871402   0.004326
C   1.007977   1.305569   0.008898
C  -0.283636   0.694452  -0.002662
N  -0.298734  -0.679416  -0.007523
C   0.810256  -1.436172  -0.005385
H   0.652229  -2.505935  -0.014065
H   3.104329   1.014632   0.019258
H   2.928466  -1.491113   0.004693
H   1.032780   2.385245   0.012652
O  -1.353646   1.332866  -0.009723
H  -2.420339   0.312412  -0.025833
O  -2.754524  -0.642690  -0.077230
H  -1.267790  -1.068697  -0.016735
H  -3.337712  -0.808259   0.665667
15

C   2.130777   0.539610   0.011896
C   2.046193  -0.872425   0.004418
C   1.009036   1.305479   0.008835
C  -0.283634   0.695830  -0.002671
N  -0.296976  -0.678872  -0.007545
C   0.811298  -1.436984  -0.005297
H   0.651976  -2.506539  -0.013949
H   3.104835   1.013641   0.019172
H   2.928962  -1.492046   0.004869
H   1.034758   2.385143   0.012516
O  -1.351954   1.335007  -0.009678
H  -2.426971   0.310038  -0.026922
O  -2.759070  -0.643726  -0.076907
H  -1.262290  -1.072102  -0.016971
H  -3.346272  -0.805343   0.663686
15

C   2.131185   0.538879   0.011862
C   2.046777  -0.873479   0.004510
C   1.010159   1.305385   0.008776
C  -0.283463   0.697152  -0.002677
N  -0.295331  -0.678327  -0.007580
C   0.812329  -1.437780  -0.005217
H   0.651760  -2.507137  -0.013839
H   3.105405   1.012576   0.019086
H   2.929587  -1.492997   0.005045
H   1.036875   2.385032   0.012387
O  -1.350293   1.337167  -0.009630
H  -2.433253   0.307788  -0.028044
O  -2.763757  -0.644743  -0.076572
H  -1.257518  -1.074794  -0.017059
H  -3.355052  -0.802510   0.661585
15

C   2.131668   0.538070   0.011828
C   2.047450  -0.874570   0.004599
C   1.011355   1.305280   0.008719
C  -0.283146   0.698430  -0.002682
N  -0.293806  -0.677775  -0.007624
C   0.813327  -1.438553  -0.005146
H   0.651564  -2.507721  -0.013733
H   3.106050   1.011434   0.019001
H   2.930311  -1.493982   0.005219
H   1.039122   2.384908   0.012266
O  -1.348649   1.339323  -0.009583
H  -2.439267   0.305649  -0.029165
O  -2.768564  -0.645720  -0.076230
H  -1.253353  -1.076902  -0.017015
H  -3.363998  -0.799727   0.659386
15

C   2.132230   0.537189   0.011795
C   2.048192  -0.875697   0.004686
C   1.012631   1.305157   0.008666
C  -0.282712   0.699677  -0.002686
N  -0.292397  -0.677217  -0.007677
C   0.814280  -1.439296  -0.005082
H   0.651368  -2.508284  -0.013629
H   3.106776   1.010216   0.018918
H   2.931101  -1.495016   0.005391
H   1.041493   2.384763   0.012151
O  -1.347008   1.341459  -0.009536
H  -2.445087   0.303616  -0.030258
O  -2.773471  -0.646640  -0.075885
H  -1.249692  -1.078538  -0.016850
H  -3.373072  -0.796968   0.657103
15

C   2.132873   0.536241   0.011763
C   2.048984  -0.876864   0.004771
C   1.013991   1.305013   0.008614
C  -0.282173   0.700897  -0.002691
N  -0.291101  -0.676648  -0.007735
C   0.815178  -1.440006  -0.005025
H   0.651157  -2.508821  -0.013524
H   3.107588   1.008921   0.018838
H   2.931928  -1.496112   0.005561
H   1.043984   2.384594   0.012043
O  -1.345360   1.343565  -0.009490
H  -2.450765   0.301687  -0.031311
O  -2.778466  -0.647491  -0.075538
H  -1.246448  -1.079798  -0.016587
H  -3.382245  -0.794211   0.654752
15

C   2.133601   0.535230   0.011732
C   2.049806  -0.878070   0.004853
C   1.015437   1.304841   0.008564
C  -0.281548   0.702096  -0.002696
N  -0.289909  -0.676067  -0.007798
C   0.816016  -1.440679  -0.004974
H   0.650915  -2.509326  -0.013418
H   3.108493   1.007548   0.018762
H   2.932764  -1.497283   0.005727
H   1.046588   2.384397   0.011941
O  -1.343695   1.345634  -0.009446
H  -2.456341   0.299862  -0.032309
O  -2.783540  -0.648265  -0.075190
H  -1.243549  -1.080752  -0.016241
H  -3.391496  -0.791446   0.652340
15

C   2.134413   0.534162   0.011701
C   2.050644  -0.879313   0.004930
C   1.016969   1.304642   0.008515
C  -0.280843   0.703277  -0.002704
N  -0.288813  -0.675473  -0.007862
C   0.816788  -1.441315  -0.004927
H   0.650631  -2.509798  -0.013308
H   3.109493   1.006096   0.018691
H   2.933586  -1.498539   0.005889
H   1.049302   2.384169   0.011847
O  -1.342010   1.347662  -0.009403
H  -2.461845   0.298142  -0.033252
O  -2.788684  -0.648955  -0.074843
H  -1.240938  -1.081461  -0.015828
H  -3.400810  -0.788663   0.649872
15

C   2.135309   0.533041   0.011672
C   2.051486  -0.880594   0.005005
C   1.018586   1.304410   0.008466
C  -0.280068   0.704441  -0.002714
N  -0.287805  -0.674865  -0.007928
C   0.817492  -1.441913  -0.004887
H   0.650298  -2.510236  -0.013196
H   3.110589   1.004569   0.018626
H   2.934377  -1.499887   0.006046
H   1.052121   2.383908   0.011759
O  -1.340301   1.349646  -0.009362
H  -2.467295   0.296524  -0.034137
O  -2.793892  -0.649560  -0.074494
H  -1.238568  -1.081966  -0.015364
H  -3.410176  -0.785854   0.647353
